pandapower/test/converter/testfiles/test_ucte_LU.uct
##C 2007.05.01
UCTE Export
test_ucte-Berechnungsfall

----- NODE BLOCK -----
_________1_________2_________3_________4_________5_________6_________7_________8_________9________10________11________12________13
1234567890123456789012345678901234567890123456789012345678901234567890123456789012345678901234567890123456789012345678901234567890
Node    |Node Name   |S|T|Volt  |PLoad  |QLoad  |PGen   |QGen   |Pmin   |Pmax   |Qmin   |Qmax   |Sta  |Pprim  |Sks__  |X/R    |T|

##N
##ZLU
1BUS1_1_ Bus1_1_LU    0 3 383.80       0       0 -0.7003 11.1224 9.99900 -9.9990 1.82725 -1.8273
1BUS1_1U Bus1_LU      0 3 383.80       0       0 -1.2445 -229.83 9.99900 -9.9990 1.82725 -1.8273
1BUS2_1_ Bus2_1_LU    0 0              0       0       0       0
1BUS2_10 Bus2_2_LU    0 0        1.20000 1.10000 -0.5000 0.20000       0 -9.9990 1.00000 -1.0000
1BUS2_11 Bus2_3_LU    0 0              0       0       0       0
1BUS2_1U Bus2_LU      0 2 380.00 1.20000 1.10000 -0.5000 238.692       0 -9.9990 1.00000 -1.0000
##C

----- LINE BLOCK -----
_________1_________2_________3_________4_________5_________6_________7
1234567890123456789012345678901234567890123456789012345678901234567890
Node 1  |Node 2  |O|S|R(Ohm)|X(Ohm)|B(uS)   |I(A)  |Element Name|

##L
1BUS1_1_ 1BUS2_11 1 0 0.7198 3.0866 42.16017    768 line3_LU
1BUS1_1U 1BUS2_1_ 1 0 0.7198 3.0866 42.16017    768 line1_LU
1BUS2_1_ 1BUS2_1U 1 0 0.7198 3.0866 42.16017    768 line2_LU
1BUS2_11 1BUS2_10 1 0 0.7198 3.0866 42.16017    768 line4_LU
##C

----- 2 WINDING TRANSFORMER BLOCK -----
_________1_________2_________3_________4_________5_________6_________7_________8_________9
123456789012345678901234567890123456789012345678901234567890123456789012345678901234567890
Node 1  |Node 2  |O|S|U1   |U2   |Sn   |R(Ohm)|X(Ohm)|B(uS)   |G(uS) |I(A)  |Element Name|

##T
##C

----- 2 WINDINGS TRANSFORMERS REGULATION BLOCK -----
_________1_________2_________3_________4_________5_________6_________7
1234567890123456789012345678901234567890123456789012345678901234567890
Node 1  |Node 2  |O|du   |mx|Tap|U    |du   |phitr|mx|Tap|P    |Type|

##R
##C

----- 2 WINDINGS TRANSFORMERS DEPENDING ON THE TAP POSITION BLOCK -----
_________1_________2_________3_________4_________5_________6
123456789012345678901234567890123456789012345678901234567890
Node 1  |Node 2  |O| |Tap|R(Ohm)|X(Ohm)|du   |phi  |

##TT
